@<TRIPOS>MOLECULE
1afk_PAP_A_1
 31 33 0 0 0
SMALL
GASTEIGER

@<TRIPOS>ATOM
      1 P          39.2670   -9.7840   20.0240 P.3     1  UNL1        0.5327
      2 P          38.8980   -5.1970   23.0660 P.3     1  UNL1        0.2231
      3 P          37.0960   -2.6270   23.1460 P.3     1  UNL1        0.5373
      4 C          37.6540   -5.4600   20.7430 C.3     1  UNL1        0.1812
      5 O          38.1350   -6.0710   21.9240 O.3     1  UNL1       -0.3111
      6 C          37.4550   -6.5780   19.7620 C.3     1  UNL1        0.1795
      7 O          36.8070   -5.9900   18.6290 O.3     1  UNL1       -0.3134
      8 C          38.7890   -7.1850   19.2480 C.3     1  UNL1        0.1928
      9 O          38.6030   -8.6050   18.9820 O.3     1  UNL1       -0.2673
     10 C          38.9870   -6.4000   17.9570 C.3     1  UNL1        0.2547
     11 O          39.8810   -7.0970   17.0610 O.3     1  UNL1       -0.2131
     12 C          37.5180   -6.4600   17.4940 C.3     1  UNL1        0.3226
     13 N          37.7970   -1.6570   15.1510 N.2     1  UNL1        0.0233
     14 O          38.0320  -10.3450   20.6260 O.3     1  UNL1       -0.1145
     15 O          39.1010   -6.1020   24.2360 O.3     1  UNL1       -0.4370
     16 O          35.6450   -2.8540   22.9910 O.3     1  UNL1       -0.1143
     17 C          38.3900   -2.1300   16.2570 C.2     1  UNL1        0.4723
     18 O          39.9760  -10.6860   19.0810 O.2     1  UNL1       -0.2224
     19 O          40.0900   -4.5480   22.4560 O.2     1  UNL1       -0.5169
     20 O          37.4700   -1.7080   24.2740 O.3     1  UNL1       -0.1143
     21 N          38.3300   -3.3480   16.8480 N.2     1  UNL1        0.0157
     22 O          40.1960   -9.0560   20.9410 O.3     1  UNL1       -0.1145
     23 O          37.7130   -4.0790   23.6160 O.3     1  UNL1       -0.2261
     24 O          37.7900   -2.3100   21.8760 O.2     1  UNL1       -0.2221
     25 C          37.4970   -4.1920   16.1420 C.2     1  UNL1        0.3612
     26 C          36.8190   -3.8500   14.9770 C.2     1  UNL1        0.2581
     27 C          36.9920   -2.4990   14.4510 C.2     1  UNL1        0.4441
     28 N          36.4470   -2.1010   13.2850 N.pl3   1  UNL1        0.2185
     29 N          36.0380   -4.9630   14.5290 N.2     1  UNL1       -0.1898
     30 C          36.2620   -5.9000   15.4020 C.2     1  UNL1        0.2844
     31 N          37.1230   -5.5360   16.4070 N.pl3   1  UNL1       -0.1246
@<TRIPOS>BOND
     1    28    27    1
     2    27    26    1
     3    27    13    2
     4    29    26    1
     5    29    30    2
     6    26    25    2
     7    13    17    1
     8    30    31    1
     9    25    31    1
    10    25    21    1
    11    17    21    2
    12    31    12    1
    13    11    10    1
    14    12    10    1
    15    12     7    1
    16    10     8    1
    17     7     6    1
    18     9     8    1
    19     9     1    1
    20    18     1    2
    21     8     6    1
    22     6     4    1
    23     1    14    1
    24     1    22    1
    25     4     5    1
    26    24     3    2
    27     5     2    1
    28    19     2    2
    29    16     3    1
    30     2    23    1
    31     2    15    1
    32     3    23    1
    33     3    20    1
