# created with PyMOL 2.4.1
@<TRIPOS>MOLECULE
1afe_ALZ_H_1
24 25 1                 
SMALL
USER_CHARGES
@<TRIPOS>ATOM
1	  N1	10.524	-12.878	24.168	N.3	1	ALZ600	0.000	
2	  C2	11.366	-12.995	22.982	C.3	1	ALZ600	0.000	
3	  C3	12.257	-11.798	22.770	C.3	1	ALZ600	0.000	
4	  C4	13.008	-11.851	21.465	C.3	1	ALZ600	0.000	
5	  C5	14.386	-11.210	21.540	C.3	1	ALZ600	0.000	
6	  N6	15.310	-11.597	20.446	N.pl3	1	ALZ600	0.000	
7	  N7	16.665	-11.709	20.770	N.pl3	1	ALZ600	0.000	
8	  C8	17.351	-12.923	20.754	C.2	1	ALZ600	0.000	
9	  N8	18.923	-14.227	22.217	N.pl3	1	ALZ600	0.000	
10	  O8	16.943	-13.905	20.174	O.2	1	ALZ600	0.000	
11	  C9	18.739	-12.986	21.398	C.3	1	ALZ600	0.000	
12	 C10	19.798	-13.067	20.280	C.3	1	ALZ600	0.000	
13	 C11	20.588	-14.363	20.517	C.3	1	ALZ600	0.000	
14	 C12	20.000	-15.068	21.756	C.3	1	ALZ600	0.000	
15	 C14	17.988	-14.772	22.992	C.2	1	ALZ600	0.000	
16	 O14	16.872	-14.249	23.169	O.co2	1	ALZ600	0.000	
17	 O15	18.267	-15.983	23.442	O.3	1	ALZ600	0.000	
18	 C16	17.498	-17.124	23.660	C.3	1	ALZ600	0.000	
19	 C17	17.852	-17.671	24.984	C.2	1	ALZ600	0.000	
20	 C18	17.755	-19.033	25.248	C.2	1	ALZ600	0.000	
21	 C19	18.135	-19.549	26.483	C.2	1	ALZ600	0.000	
22	 C20	18.630	-18.686	27.460	C.2	1	ALZ600	0.000	
23	 C21	18.743	-17.319	27.212	C.2	1	ALZ600	0.000	
24	 C22	18.368	-16.824	25.962	C.2	1	ALZ600	0.000	
@<TRIPOS>BOND
1 1 2 1
2 2 3 1
3 3 4 1
4 4 5 1
5 5 6 1
6 6 7 1
7 7 8 1
8 8 10 2
9 9 11 1
10 9 14 1
11 8 11 1
12 11 12 1
13 12 13 1
14 13 14 1
15 9 15 1
16 15 16 2
17 15 17 1
18 17 18 1
19 18 19 1
20 19 20 ar
21 19 24 ar
22 20 21 ar
23 21 22 ar
24 22 23 ar
25 23 24 ar
@<TRIPOS>SUBSTRUCTURE
1	ALZ600	1	GROUP	1 H	ALZ
