@<TRIPOS>MOLECULE
4lkg_ligand
 87 89 0 0 0
SMALL
GASTEIGER

@<TRIPOS>ATOM
      1 C          29.9380  -23.6890   34.6090 C.2     1  UNL1        0.4145
      2 C          30.2100  -23.4010   36.0630 C.3     1  UNL1        0.2776
      3 C          29.1160  -24.0290   36.9180 C.3     1  UNL1        0.0407
      4 C          29.1320  -25.5480   36.7930 C.3     1  UNL1        0.0815
      5 C          30.5390  -26.0990   36.9940 C.3     1  UNL1        0.0779
      6 C          31.5480  -25.3450   36.1370 C.3     1  UNL1        0.1114
      7 C          32.9650  -25.8430   36.3960 C.3     1  UNL1        0.1111
      8 C          33.9970  -24.8680   35.8420 C.3     1  UNL1        0.1065
      9 C          35.2860  -25.5900   35.4680 C.3     1  UNL1        0.0727
     10 C          31.2520  -28.3810   37.4080 C.2     1  UNL1        0.2103
     11 C          31.1650  -29.8140   36.9730 C.3     1  UNL1        0.0122
     12 N          30.5690  -27.5120   36.6690 N.am    1  UNL1       -0.3076
     13 O          28.7570  -23.6480   34.2030 O.co2   1  UNL1       -0.2403
     14 O          30.9050  -23.9580   33.8630 O.co2   1  UNL1       -0.2403
     15 O          28.2530  -26.1160   37.7700 O.3     1  UNL1       -0.3897
     16 O          31.4740  -23.9510   36.4280 O.3     1  UNL1       -0.3318
     17 O          33.1650  -26.0000   37.8050 O.3     1  UNL1       -0.3865
     18 O          33.4630  -24.2140   34.6860 O.3     1  UNL1       -0.3869
     19 O          36.3100  -24.6270   35.1930 O.3     1  UNL1       -0.3924
     20 O          31.9070  -28.0350   38.3770 O.2     1  UNL1       -0.2761
     21 C          32.1270  -19.0370   35.5470 C.3     1  UNL1        0.1884
     22 C          31.6410  -20.2420   36.3560 C.3     1  UNL1        0.1345
     23 C          30.6720  -21.0930   35.5530 C.3     1  UNL1        0.1213
     24 C          29.5830  -20.2790   34.8850 C.3     1  UNL1        0.1123
     25 C          30.1940  -19.0840   34.1670 C.3     1  UNL1        0.1130
     26 C          29.1210  -18.1860   33.5650 C.3     1  UNL1        0.0730
     27 O          32.7310  -21.0490   36.7470 O.3     1  UNL1       -0.3841
     28 O          30.0450  -22.0010   36.4110 O.3     1  UNL1       -0.3310
     29 O          28.6530  -19.8760   35.8600 O.3     1  UNL1       -0.3865
     30 O          30.9940  -18.3370   35.0630 O.3     1  UNL1       -0.3405
     31 O          29.7410  -17.0330   33.0410 O.3     1  UNL1       -0.3924
     32 C          36.5130  -16.3620   37.0360 C.3     1  UNL1        0.1776
     33 C          35.7160  -15.7340   35.8950 C.3     1  UNL1        0.1021
     34 C          34.3770  -16.4290   35.6230 C.3     1  UNL1        0.1068
     35 C          34.3180  -17.9300   35.9270 C.3     1  UNL1        0.1177
     36 C          35.2720  -18.3500   37.0420 C.3     1  UNL1        0.1133
     37 C          35.4510  -19.8630   37.0510 C.3     1  UNL1        0.0730
     38 C          35.8450  -13.3370   35.4640 C.2     1  UNL1        0.2104
     39 C          34.8790  -12.2010   35.2780 C.3     1  UNL1        0.0122
     40 N          35.4170  -14.3520   36.2090 N.am    1  UNL1       -0.3053
     41 O          37.8340  -15.8690   37.0480 O.3     1  UNL1       -0.3654
     42 O          34.0300  -16.2150   34.2690 O.3     1  UNL1       -0.3871
     43 O          33.0020  -18.2170   36.3580 O.3     1  UNL1       -0.3402
     44 O          36.5440  -17.7620   36.8920 O.3     1  UNL1       -0.3414
     45 O          36.1890  -20.2590   38.1850 O.3     1  UNL1       -0.3924
     46 O          36.9590  -13.3110   34.9390 O.2     1  UNL1       -0.2761
     47 H          28.1379  -23.6507   36.5861 H       1  UNL1        0.0349
     48 H          29.2782  -23.7526   37.9703 H       1  UNL1        0.0349
     49 H          28.7820  -25.8255   35.7878 H       1  UNL1        0.0614
     50 H          30.8158  -25.9739   38.0512 H       1  UNL1        0.0550
     51 H          31.3032  -25.5054   35.0767 H       1  UNL1        0.0643
     52 H          33.0953  -26.8172   35.9020 H       1  UNL1        0.0646
     53 H          34.2224  -24.1144   36.6109 H       1  UNL1        0.0643
     54 H          35.1142  -26.2078   34.5743 H       1  UNL1        0.0584
     55 H          35.6018  -26.2327   36.3030 H       1  UNL1        0.0584
     56 H          31.7638  -30.4399   37.6509 H       1  UNL1        0.0322
     57 H          31.5518  -29.9101   35.9477 H       1  UNL1        0.0322
     58 H          30.1157  -30.1428   37.0014 H       1  UNL1        0.0322
     59 H          30.0643  -27.8404   35.8706 H       1  UNL1        0.1491
     60 H          27.3765  -25.7720   37.6439 H       1  UNL1        0.2099
     61 H          32.5213  -26.6079   38.1493 H       1  UNL1        0.2100
     62 H          32.6597  -23.7645   34.9206 H       1  UNL1        0.2100
     63 H          36.4576  -24.0940   35.9654 H       1  UNL1        0.2095
     64 H          32.7046  -19.3971   34.6829 H       1  UNL1        0.0938
     65 H          31.1278  -19.8729   37.2562 H       1  UNL1        0.0671
     66 H          31.2367  -21.6374   34.7818 H       1  UNL1        0.0652
     67 H          29.0681  -20.9072   34.1432 H       1  UNL1        0.0647
     68 H          30.8316  -19.4580   33.3524 H       1  UNL1        0.0647
     69 H          28.3997  -17.8973   34.3437 H       1  UNL1        0.0584
     70 H          28.5970  -18.7229   32.7606 H       1  UNL1        0.0584
     71 H          32.4151  -21.7699   37.2791 H       1  UNL1        0.2101
     72 H          28.2917  -20.6434   36.2878 H       1  UNL1        0.2100
     73 H          30.1939  -16.5737   33.7384 H       1  UNL1        0.2095
     74 H          36.0271  -16.1088   37.9898 H       1  UNL1        0.0928
     75 H          36.3291  -15.7793   34.9828 H       1  UNL1        0.0575
     76 H          33.6233  -15.9419   36.2592 H       1  UNL1        0.0640
     77 H          34.5551  -18.4963   35.0143 H       1  UNL1        0.0650
     78 H          34.8435  -18.0315   38.0038 H       1  UNL1        0.0647
     79 H          35.9886  -20.1708   36.1420 H       1  UNL1        0.0584
     80 H          34.4629  -20.3457   37.0738 H       1  UNL1        0.0584
     81 H          35.3410  -11.4262   34.6486 H       1  UNL1        0.0322
     82 H          34.6234  -11.7727   36.2584 H       1  UNL1        0.0322
     83 H          33.9655  -12.5725   34.7907 H       1  UNL1        0.0322
     84 H          34.8660  -14.1529   37.0194 H       1  UNL1        0.1492
     85 H          38.3082  -16.2548   37.7752 H       1  UNL1        0.2125
     86 H          34.0656  -15.2852   34.0773 H       1  UNL1        0.2100
     87 H          36.2938  -21.2032   38.1794 H       1  UNL1        0.2095
@<TRIPOS>BOND
     1    70    26    1
     2    31    26    1
     3    31    73    1
     4    68    25    1
     5    26    25    1
     6    26    69    1
     7    14     1   ar
     8    86    42    1
     9    67    24    1
    10    25    24    1
    11    25    30    1
    12    13     1   ar
    13    42    34    1
    14    54     9    1
    15     1     2    1
    16    81    39    1
    17    64    21    1
    18    18    62    1
    19    18     8    1
    20    66    23    1
    21    83    39    1
    22    24    23    1
    23    24    29    1
    24    46    38    2
    25    75    33    1
    26    77    35    1
    27    30    21    1
    28    51     6    1
    29    19     9    1
    30    19    63    1
    31    39    38    1
    32    39    82    1
    33    38    40   am
    34     9     8    1
    35     9    55    1
    36    21    22    1
    37    21    43    1
    38    23    22    1
    39    23    28    1
    40    34    33    1
    41    34    35    1
    42    34    76    1
    43    49     4    1
    44     8     7    1
    45     8    53    1
    46    29    72    1
    47    59    12    1
    48    33    40    1
    49    33    32    1
    50    52     7    1
    51    35    43    1
    52    35    36    1
    53    57    11    1
    54     2    28    1
    55     2    16    1
    56     2     3    1
    57     6     7    1
    58     6    16    1
    59     6     5    1
    60    79    37    1
    61    40    84    1
    62    22    27    1
    63    22    65    1
    64     7    17    1
    65    47     3    1
    66    12     5    1
    67    12    10   am
    68    27    71    1
    69     4     3    1
    70     4     5    1
    71     4    15    1
    72    44    32    1
    73    44    36    1
    74     3    48    1
    75    11    58    1
    76    11    10    1
    77    11    56    1
    78     5    50    1
    79    32    41    1
    80    32    74    1
    81    36    37    1
    82    36    78    1
    83    41    85    1
    84    37    80    1
    85    37    45    1
    86    10    20    2
    87    60    15    1
    88    17    61    1
    89    87    45    1
