# created with PyMOL 2.4.1
@<TRIPOS>MOLECULE
3chr_4BS_A_1
21 22 1                 
SMALL
USER_CHARGES
@<TRIPOS>ATOM
1	  N1	13.423	40.457	63.429	N.3	1	4BS613	0.000	
2	  C2	13.726	41.857	63.162	C.3	1	4BS613	0.000	
3	  C3	13.432	42.679	64.406	C.3	1	4BS613	0.000	
4	  C4	11.948	42.878	64.680	C.3	1	4BS613	0.000	
5	  C5	11.295	41.749	65.424	C.2	1	4BS613	0.000	
6	  O6	11.840	40.674	65.591	O.2	1	4BS613	0.000	
7	  N7	10.089	42.037	65.882	N.pl3	1	4BS613	0.000	
8	  C9	9.334	41.165	66.584	C.2	1	4BS613	0.000	
9	 C10	9.588	39.784	66.670	C.2	1	4BS613	0.000	
10	 C11	8.801	38.975	67.485	C.2	1	4BS613	0.000	
11	 C12	7.747	39.543	68.183	C.2	1	4BS613	0.000	
12	 C13	7.506	40.906	68.096	C.2	1	4BS613	0.000	
13	 C14	8.277	41.709	67.287	C.2	1	4BS613	0.000	
14	 O15	6.896	38.852	69.001	O.3	1	4BS613	0.000	
15	 C16	6.917	37.470	69.358	C.3	1	4BS613	0.000	
16	 C17	7.842	36.983	70.478	C.2	1	4BS613	0.000	
17	 C18	8.439	37.770	71.479	C.2	1	4BS613	0.000	
18	 C19	9.248	37.187	72.451	C.2	1	4BS613	0.000	
19	 C20	9.465	35.805	72.443	C.2	1	4BS613	0.000	
20	 C21	8.876	35.022	71.464	C.2	1	4BS613	0.000	
21	 C22	8.085	35.618	70.501	C.2	1	4BS613	0.000	
@<TRIPOS>BOND
1 1 2 1
2 2 3 1
3 3 4 1
4 4 5 1
5 5 6 2
6 5 7 1
7 7 8 1
8 8 9 ar
9 8 13 ar
10 9 10 ar
11 10 11 ar
12 11 12 ar
13 11 14 1
14 12 13 ar
15 14 15 1
16 15 16 1
17 16 17 ar
18 16 21 ar
19 17 18 ar
20 18 19 ar
21 19 20 ar
22 20 21 ar
@<TRIPOS>SUBSTRUCTURE
1	4BS613	1	GROUP	1 A	4BS
