@<TRIPOS>MOLECULE
3ch6_NAP_D_1
 48 52 0 0 0
SMALL
GASTEIGER

@<TRIPOS>ATOM
      1 P          38.7220   58.7010  143.9730 P.3     1  UNL1        0.5328
      2 P          39.3700   53.9340  138.0100 P.3     1  UNL1        0.2189
      3 P          39.8970   53.7770  135.1550 P.3     1  UNL1        0.2189
      4 C          38.7490   59.2400  140.4970 C.3     1  UNL1        0.3200
      5 C          38.4300   55.5950  130.7690 C.3     1  UNL1        0.2263
      6 N          36.0430   63.5370  141.5690 N.2     1  UNL1        0.0233
      7 N          38.1590   54.2140  130.2520 N.pl3   1  UNL1       -0.2787
      8 O          40.4840   52.9530  138.1800 O.2     1  UNL1       -0.5170
      9 O          41.4190   53.7910  135.1980 O.3     1  UNL1       -0.4371
     10 O          39.6770   58.5600  145.1490 O.3     1  UNL1       -0.1145
     11 C          37.3430   63.3630  141.3010 C.2     1  UNL1        0.4723
     12 C          39.0230   58.0030  141.3800 C.3     1  UNL1        0.2318
     13 C          37.3880   56.0500  131.7760 C.3     1  UNL1        0.2309
     14 C          38.3260   53.1390  131.0630 C.3     1  UNL1        0.1244
     15 O          37.9440   53.5560  138.4240 O.3     1  UNL1       -0.4371
     16 O          39.5930   58.2890  142.6740 O.3     1  UNL1       -0.2630
     17 O          36.2450   56.5790  131.1400 O.3     1  UNL1       -0.2158
     18 O          39.1200   52.5290  134.7800 O.2     1  UNL1       -0.5170
     19 O          38.2350   60.1300  143.6910 O.2     1  UNL1       -0.2224
     20 C          40.1690   57.3980  140.5990 C.3     1  UNL1        0.2158
     21 C          38.1260   57.1460  132.5420 C.3     1  UNL1        0.2158
     22 C          38.0740   51.8750  130.5500 C.2     1  UNL1        0.0544
     23 N          37.9760   62.2070  141.0220 N.2     1  UNL1        0.0157
     24 O          39.2240   54.3480  136.4690 O.3     1  UNL1       -0.2703
     25 O          41.3490   58.0980  141.0530 O.3     1  UNL1       -0.2175
     26 O          37.9640   58.3910  131.8490 O.3     1  UNL1       -0.2175
     27 O          37.5580   57.7550  144.0000 O.3     1  UNL1       -0.1145
     28 C          37.1410   61.1390  141.0060 C.2     1  UNL1        0.3612
     29 C          39.8520   57.7000  139.1190 C.3     1  UNL1        0.1820
     30 C          39.5880   56.7030  132.4800 C.3     1  UNL1        0.1799
     31 C          37.6730   51.7510  129.2090 C.2     1  UNL1        0.0033
     32 O          38.8980   58.8180  139.1200 O.3     1  UNL1       -0.3133
     33 O          39.6630   55.6500  131.4710 O.3     1  UNL1       -0.3327
     34 C          35.7760   61.1700  141.2600 C.2     1  UNL1        0.2581
     35 C          39.1510   56.5410  138.4140 C.3     1  UNL1        0.1813
     36 C          40.0930   56.1150  133.8010 C.3     1  UNL1        0.1813
     37 C          37.5220   52.8550  128.4100 C.2     1  UNL1        0.0157
     38 O          39.8590   55.3350  138.6520 O.3     1  UNL1       -0.3112
     39 O          39.3520   54.9270  134.1030 O.3     1  UNL1       -0.3112
     40 C          35.2200   62.4490  141.5550 C.2     1  UNL1        0.4441
     41 C          37.7650   54.0870  128.9620 C.2     1  UNL1        0.0633
     42 N          33.8820   62.6530  141.8630 N.pl3   1  UNL1        0.2185
     43 C          38.2530   50.6520  131.4010 C.2     1  UNL1        0.2818
     44 N          35.2450   59.8720  141.1810 N.2     1  UNL1       -0.1898
     45 N          38.8590   50.7630  132.6100 N.am    1  UNL1       -0.0839
     46 O          38.0680   49.5360  130.9010 O.2     1  UNL1       -0.2670
     47 C          36.2620   59.0780  140.8780 C.2     1  UNL1        0.2844
     48 N          37.4350   59.7960  140.7550 N.pl3   1  UNL1       -0.1247
@<TRIPOS>BOND
     1    37    41    2
     2    37    31    1
     3    41     7    1
     4    31    22    2
     5     7     5    1
     6     7    14    1
     7    22    14    1
     8    22    43    1
     9     5    33    1
    10     5    13    1
    11    46    43    2
    12    17    13    1
    13    43    45    1
    14    33    30    1
    15    13    21    1
    16    26    21    1
    17    30    21    1
    18    30    36    1
    19    36    39    1
    20    39     3    1
    21    18     3    2
    22     3     9    1
    23     3    24    1
    24    24     2    1
    25     2     8    2
    26     2    15    1
    27     2    38    1
    28    35    38    1
    29    35    29    1
    30    29    32    1
    31    29    20    1
    32    32     4    1
    33     4    48    1
    34     4    12    1
    35    20    25    1
    36    20    12    1
    37    48    47    1
    38    48    28    1
    39    47    44    2
    40    28    23    2
    41    28    34    1
    42    23    11    1
    43    44    34    1
    44    34    40    2
    45    11     6    2
    46    12    16    1
    47    40     6    1
    48    40    42    1
    49    16     1    1
    50    19     1    2
    51     1    27    1
    52     1    10    1
