# created with PyMOL 2.4.1
@<TRIPOS>MOLECULE
3cib_314_A_1
44 47 1                 
SMALL
USER_CHARGES
@<TRIPOS>ATOM
1	  C1	26.967	15.497	24.522	C.2	1	314501	0.000	
2	  N1	28.700	13.642	22.044	N.pl3	1	314501	0.000	
3	  O1	29.331	13.656	24.209	O.2	1	314501	0.000	
4	  C2	27.119	14.285	23.790	C.2	1	314501	0.000	
5	  N2	23.751	11.752	23.481	N.pl3	1	314501	0.000	
6	  O2	22.379	13.551	23.484	O.2	1	314501	0.000	
7	  C3	25.971	13.480	23.499	C.2	1	314501	0.000	
8	  N3	21.101	10.031	26.556	N.3	1	314501	0.000	
9	  O3	21.203	9.031	23.891	O.3	1	314501	0.000	
10	  C4	24.677	13.893	23.929	C.2	1	314501	0.000	
11	  C5	24.528	15.113	24.656	C.2	1	314501	0.000	
12	  C6	25.676	15.911	24.952	C.2	1	314501	0.000	
13	  C7	28.454	13.848	23.373	C.2	1	314501	0.000	
14	  C8	30.044	13.190	21.700	C.3	1	314501	0.000	
15	  C9	27.722	13.851	20.975	C.3	1	314501	0.000	
16	 C10	28.229	14.926	20.016	C.3	1	314501	0.000	
17	 C11	28.794	16.139	20.752	C.3	1	314501	0.000	
18	 C12	30.012	11.718	21.207	C.3	1	314501	0.000	
19	 C13	29.193	10.776	22.110	C.3	1	314501	0.000	
20	 C14	25.526	17.170	25.704	C.3	1	314501	0.000	
21	 C15	23.500	13.077	23.616	C.2	1	314501	0.000	
22	 C16	22.652	10.831	23.142	C.3	1	314501	0.000	
23	 C17	22.125	10.029	24.354	C.3	1	314501	0.000	
24	 C18	23.123	9.871	22.033	C.3	1	314501	0.000	
25	 C19	23.800	10.642	20.917	C.2	1	314501	0.000	
26	 C20	25.144	10.341	20.550	C.2	1	314501	0.000	
27	 C21	25.774	11.072	19.494	C.2	1	314501	0.000	
28	 C22	25.068	12.095	18.812	C.2	1	314501	0.000	
29	 C23	23.733	12.395	19.177	C.2	1	314501	0.000	
30	 C24	23.094	11.675	20.224	C.2	1	314501	0.000	
31	 C25	21.397	10.894	25.390	C.3	1	314501	0.000	
32	 C26	20.098	11.499	24.821	C.3	1	314501	0.000	
33	 C27	19.270	12.192	25.906	C.3	1	314501	0.000	
34	 C28	19.135	11.315	27.153	C.3	1	314501	0.000	
35	 C29	20.475	10.801	27.643	C.3	1	314501	0.000	
36	 C30	17.918	12.726	25.374	C.3	1	314501	0.000	
37	 C31	16.952	11.590	25.096	C.2	1	314501	0.000	
38	 C32	16.049	11.157	26.112	C.2	1	314501	0.000	
39	 C33	15.137	10.088	25.854	C.2	1	314501	0.000	
40	 C34	15.131	9.454	24.578	C.2	1	314501	0.000	
41	 C35	16.033	9.890	23.565	C.2	1	314501	0.000	
42	 C36	16.942	10.956	23.821	C.2	1	314501	0.000	
43	  F1	27.026	10.808	19.137	 F	1	314501	0.000	
44	  F2	23.083	13.359	18.530	 F	1	314501	0.000	
@<TRIPOS>BOND
1 1 4 ar
2 1 12 ar
3 2 14 1
4 2 15 1
5 4 7 ar
6 4 13 1
7 5 22 1
8 7 10 ar
9 10 11 ar
10 10 21 1
11 11 12 ar
12 12 20 1
13 2 13 1
14 3 13 2
15 14 18 1
16 15 16 1
17 16 17 1
18 18 19 1
19 5 21 1
20 6 21 2
21 22 23 1
22 22 24 1
23 9 23 1
24 23 31 1
25 24 25 1
26 25 26 ar
27 25 30 ar
28 26 27 ar
29 27 28 ar
30 28 29 ar
31 29 30 ar
32 8 31 1
33 31 32 1
34 32 33 1
35 33 34 1
36 33 36 1
37 34 35 1
38 8 35 1
39 36 37 1
40 37 38 ar
41 37 42 ar
42 38 39 ar
43 39 40 ar
44 40 41 ar
45 41 42 ar
46 27 43 1
47 29 44 1
@<TRIPOS>SUBSTRUCTURE
1	314501	1	GROUP	1 A	314
