# created with PyMOL 2.4.1
@<TRIPOS>MOLECULE
3cib_314_B_1
44 47 1                 
SMALL
USER_CHARGES
@<TRIPOS>ATOM
1	  C1	16.349	29.678	59.208	C.2	1	314501	0.000	
2	  N1	14.653	31.568	56.715	N.pl3	1	314501	0.000	
3	  O1	13.974	31.506	58.854	O.2	1	314501	0.000	
4	  C2	16.207	30.889	58.476	C.2	1	314501	0.000	
5	  N2	19.591	33.403	58.218	N.pl3	1	314501	0.000	
6	  O2	20.962	31.585	58.212	O.2	1	314501	0.000	
7	  C3	17.363	31.689	58.199	C.2	1	314501	0.000	
8	  N3	22.206	35.181	61.294	N.3	1	314501	0.000	
9	  O3	22.131	36.145	58.589	O.3	1	314501	0.000	
10	  C4	18.648	31.271	58.648	C.2	1	314501	0.000	
11	  C5	18.783	30.052	59.374	C.2	1	314501	0.000	
12	  C6	17.633	29.258	59.655	C.2	1	314501	0.000	
13	  C7	14.872	31.334	58.039	C.2	1	314501	0.000	
14	  C8	13.314	32.022	56.349	C.3	1	314501	0.000	
15	  C9	15.646	31.383	55.660	C.3	1	314501	0.000	
16	 C10	15.138	30.343	54.660	C.3	1	314501	0.000	
17	 C11	14.474	29.137	55.352	C.3	1	314501	0.000	
18	 C12	13.349	33.490	55.866	C.3	1	314501	0.000	
19	 C13	14.120	34.423	56.819	C.3	1	314501	0.000	
20	 C14	17.777	28.002	60.408	C.3	1	314501	0.000	
21	 C15	19.833	32.076	58.346	C.2	1	314501	0.000	
22	 C16	20.690	34.316	57.877	C.3	1	314501	0.000	
23	 C17	21.208	35.153	59.072	C.3	1	314501	0.000	
24	 C18	20.220	35.239	56.729	C.3	1	314501	0.000	
25	 C19	19.556	34.443	55.615	C.2	1	314501	0.000	
26	 C20	18.219	34.744	55.217	C.2	1	314501	0.000	
27	 C21	17.597	33.999	54.169	C.2	1	314501	0.000	
28	 C22	18.310	32.952	53.515	C.2	1	314501	0.000	
29	 C23	19.640	32.651	53.910	C.2	1	314501	0.000	
30	 C24	20.266	33.394	54.955	C.2	1	314501	0.000	
31	 C25	21.940	34.309	60.125	C.3	1	314501	0.000	
32	 C26	23.268	33.755	59.585	C.3	1	314501	0.000	
33	 C27	24.070	33.027	60.667	C.3	1	314501	0.000	
34	 C28	24.166	33.865	61.947	C.3	1	314501	0.000	
35	 C29	22.801	34.399	62.392	C.3	1	314501	0.000	
36	 C30	25.440	32.502	60.152	C.3	1	314501	0.000	
37	 C31	26.399	33.649	59.864	C.2	1	314501	0.000	
38	 C32	27.322	34.073	60.868	C.2	1	314501	0.000	
39	 C33	28.223	35.146	60.607	C.2	1	314501	0.000	
40	 C34	28.199	35.797	59.337	C.2	1	314501	0.000	
41	 C35	27.278	35.374	58.332	C.2	1	314501	0.000	
42	 C36	26.380	34.300	58.596	C.2	1	314501	0.000	
43	  F1	16.344	34.282	53.798	 F	1	314501	0.000	
44	  F2	20.308	31.669	53.297	 F	1	314501	0.000	
@<TRIPOS>BOND
1 1 4 ar
2 1 12 ar
3 2 14 1
4 2 15 1
5 4 7 ar
6 4 13 1
7 5 22 1
8 7 10 ar
9 10 11 ar
10 10 21 1
11 11 12 ar
12 12 20 1
13 2 13 1
14 3 13 2
15 14 18 1
16 15 16 1
17 16 17 1
18 18 19 1
19 5 21 1
20 6 21 2
21 22 23 1
22 22 24 1
23 9 23 1
24 23 31 1
25 24 25 1
26 25 26 ar
27 25 30 ar
28 26 27 ar
29 27 28 ar
30 28 29 ar
31 29 30 ar
32 8 31 1
33 31 32 1
34 32 33 1
35 33 34 1
36 33 36 1
37 34 35 1
38 8 35 1
39 36 37 1
40 37 38 ar
41 37 42 ar
42 38 39 ar
43 39 40 ar
44 40 41 ar
45 41 42 ar
46 27 43 1
47 29 44 1
@<TRIPOS>SUBSTRUCTURE
1	314501	1	GROUP	1 B	314
