@<TRIPOS>MOLECULE
3cfs_ligand
 258 258 0 0 0
SMALL
GASTEIGER

@<TRIPOS>ATOM
      1 N          13.1190  -24.4560   37.9330 N.4     1  GLN1        0.3857
      2 CA         14.2020  -23.4890   37.5960 C.3     1  GLN1       -0.0046
      3 C          13.6230  -22.0870   37.4160 C.2     1  GLN1        0.1989
      4 O          13.4610  -21.3460   38.3860 O.2     1  GLN1       -0.2776
      5 CB         14.9420  -23.9370   36.3340 C.3     1  GLN1       -0.0497
      6 CG         16.3770  -23.4420   36.2440 C.3     1  GLN1        0.0227
      7 CD         17.2440  -24.3280   35.3680 C.2     1  GLN1        0.2104
      8 OE1        16.8190  -24.7770   34.3030 O.2     1  GLN1       -0.2760
      9 NE2        18.4680  -24.5850   35.8160 N.am    1  GLN1       -0.3293
     10 N          13.3080  -21.7300   36.1750 N.am    2  GLY2       -0.3081
     11 CA         12.6260  -20.4720   35.8950 C.3     2  GLY2        0.0881
     12 C          11.1230  -20.6620   35.9380 C.2     2  GLY2        0.2308
     13 O          10.4040  -20.2280   35.0380 O.2     2  GLY2       -0.2741
     14 N          10.6510  -21.3130   36.9970 N.am    3  ILE3       -0.3025
     15 CA          9.2510  -21.7100   37.1090 C.3     3  ILE3        0.1019
     16 C           8.4420  -20.7610   37.9950 C.2     3  ILE3        0.2343
     17 O           7.2200  -20.6700   37.8680 O.2     3  ILE3       -0.2738
     18 CB          9.1300  -23.1730   37.6010 C.3     3  ILE3       -0.0171
     19 CG1         9.2570  -24.1370   36.4150 C.3     3  ILE3       -0.0512
     20 CG2         7.8130  -23.4010   38.3330 C.3     3  ILE3       -0.0603
     21 CD1         9.4340  -25.5840   36.8230 C.3     3  ILE3       -0.0650
     22 N           9.1310  -20.0430   38.8770 N.am    4  THR4       -0.3003
     23 CA          8.4880  -19.0380   39.7210 C.3     4  THR4        0.1252
     24 C           7.9640  -17.8640   38.8870 C.2     4  THR4        0.2365
     25 O           8.4840  -17.5790   37.8070 O.2     4  THR4       -0.2737
     26 CB          9.4470  -18.5300   40.8230 C.3     4  THR4        0.0792
     27 OG1         8.9120  -17.3450   41.4240 O.3     4  THR4       -0.3897
     28 CG2        10.8190  -18.2240   40.2430 C.3     4  THR4       -0.0367
     29 N           6.9600  -17.1830   39.3640 N.am    5  LYS5       -0.3024
     30 CA          6.3610  -16.1070   38.6100 C.3     5  LYS5        0.0996
     31 C           7.2430  -14.9260   38.3000 C.2     5  LYS5        0.2365
     32 O           7.1920  -14.4190   37.2390 O.2     5  LYS5       -0.2735
     33 CB          5.0790  -15.6140   39.2490 C.3     5  LYS5       -0.0260
     34 CG          4.2450  -16.6560   39.7860 C.3     5  LYS5       -0.0526
     35 CD          3.0240  -16.7420   39.0220 C.3     5  LYS5       -0.0688
     36 CE          1.9270  -16.1050   39.7740 C.3     5  LYS5       -0.0963
     37 NZ          1.5420  -14.8460   39.1330 N.4     5  LYS5        0.3781
     38 N           8.0100  -14.4510   39.2560 N.am    6  PRO6       -0.2884
     39 CA          9.0000  -13.4120   38.9640 C.3     6  PRO6        0.1023
     40 C           9.9970  -13.8100   37.8740 C.2     6  PRO6        0.2342
     41 O          10.4210  -12.9610   37.0900 O.2     6  PRO6       -0.2738
     42 CB          9.7240  -13.2350   40.3020 C.3     6  PRO6       -0.0243
     43 CG          8.7290  -13.6500   41.3210 C.3     6  PRO6       -0.0350
     44 CD          7.9680  -14.7770   40.6930 C.3     6  PRO6        0.0156
     45 N          10.3710  -15.0850   37.8260 N.am    7  ALA7       -0.3027
     46 CA         11.3070  -15.5590   36.8110 C.3     7  ALA7        0.0966
     47 C          10.6520  -15.6170   35.4330 C.2     7  ALA7        0.2337
     48 O          11.2840  -15.3110   34.4220 O.2     7  ALA7       -0.2738
     49 CB         11.8690  -16.9160   37.1920 C.3     7  ALA7       -0.0381
     50 N           9.3830  -16.0140   35.4020 N.am    8  ILE8       -0.3022
     51 CA          8.6280  -16.0840   34.1560 C.3     8  ILE8        0.1020
     52 C           8.3730  -14.6830   33.6050 C.2     8  ILE8        0.2342
     53 O           8.4520  -14.4570   32.3970 O.2     8  ILE8       -0.2738
     54 CB          7.2940  -16.8370   34.3480 C.3     8  ILE8       -0.0171
     55 CG1         7.5610  -18.3240   34.6020 C.3     8  ILE8       -0.0512
     56 CG2         6.3860  -16.6550   33.1380 C.3     8  ILE8       -0.0603
     57 CD1         6.3180  -19.1270   34.9300 C.3     8  ILE8       -0.0650
     58 N           8.1270  -13.7550   34.4990 N.am    9  ARG9       -0.3025
     59 CA          7.9380  -12.4090   34.1590 C.3     9  ARG9        0.0995
     60 C           9.1670  -11.7780   33.5870 C.2     9  ARG9        0.2339
     61 O           9.0890  -10.9320   32.7560 O.2     9  ARG9       -0.2738
     62 CB          7.3960  -11.6610   35.3260 C.3     9  ARG9       -0.0231
     63 CG          5.9880  -11.6680   35.2630 C.3     9  ARG9       -0.0201
     64 CD          5.3550  -10.9200   36.3160 C.3     9  ARG9        0.0646
     65 NE          4.8690  -11.8550   37.2940 N.pl3   9  ARG9       -0.2787
     66 CZ          3.6520  -11.8820   37.7860 C.cat   9  ARG9        0.3410
     67 NH1         2.7640  -11.0030   37.4240 N.pl3   9  ARG9       -0.2919
     68 NH2         3.3420  -12.7960   38.6750 N.pl3   9  ARG9       -0.2919
     69 N          10.3070  -12.2510   34.0200 N.am   10  ARG10      -0.3025
     70 CA         11.6070  -11.8130   33.5740 C.3    10  ARG10       0.0995
     71 C          11.9660  -12.4600   32.2600 C.2    10  ARG10       0.2339
     72 O          12.6120  -11.8640   31.4660 O.2    10  ARG10      -0.2738
     73 CB         12.6040  -12.1750   34.6460 C.3    10  ARG10      -0.0231
     74 CG         13.9380  -11.6040   34.6020 C.3    10  ARG10      -0.0201
     75 CD         14.8270  -12.5330   35.4350 C.3    10  ARG10       0.0646
     76 NE         15.8840  -11.9350   36.2200 N.pl3  10  ARG10      -0.2787
     77 CZ         15.8170  -11.7100   37.5360 C.cat  10  ARG10       0.3410
     78 NH1        15.1280  -10.6680   38.0090 N.pl3  10  ARG10      -0.2919
     79 NH2        16.4370  -12.5200   38.3830 N.pl3  10  ARG10      -0.2919
     80 N          11.5210  -13.6840   32.0560 N.am   11  LEU11      -0.3025
     81 CA         11.6570  -14.3580   30.7720 C.3    11  LEU11       0.0996
     82 C          10.8430  -13.6110   29.7200 C.2    11  LEU11       0.2339
     83 O          11.2980  -13.4090   28.5950 O.2    11  LEU11      -0.2738
     84 CB         11.1650  -15.8050   30.8750 C.3    11  LEU11      -0.0236
     85 CG         11.9650  -16.9180   30.1860 C.3    11  LEU11      -0.0446
     86 CD2        11.0430  -18.0710   29.8150 C.3    11  LEU11      -0.0626
     87 CD1        12.7140  -16.4210   28.9600 C.3    11  LEU11      -0.0626
     88 N           9.6400  -13.1920   30.1010 N.am   12  ALA12      -0.3027
     89 CA          8.7470  -12.4760   29.1940 C.3    12  ALA12       0.0966
     90 C           9.3830  -11.2000   28.6540 C.2    12  ALA12       0.2337
     91 O           9.2690  -10.8970   27.4650 O.2    12  ALA12      -0.2738
     92 CB          7.4350  -12.1600   29.8890 C.3    12  ALA12      -0.0381
     93 N          10.0520  -10.4560   29.5320 N.am   13  ARG13      -0.3025
     94 CA         10.6750   -9.1910   29.1560 C.3    13  ARG13       0.0995
     95 C          11.9190   -9.4160   28.3040 C.2    13  ARG13       0.2339
     96 O          12.3110   -8.5520   27.5210 O.2    13  ARG13      -0.2738
     97 CB         11.0210   -8.3710   30.4010 C.3    13  ARG13      -0.0231
     98 CG          9.8510   -8.1960   31.3530 C.3    13  ARG13      -0.0201
     99 CD         10.2730   -7.5680   32.6700 C.3    13  ARG13       0.0646
    100 NE         10.2330   -6.1110   32.6130 N.pl3  13  ARG13      -0.2787
    101 CZ         11.3070   -5.3320   32.5790 C.cat  13  ARG13       0.3410
    102 NH2        12.5190   -5.8650   32.6080 N.pl3  13  ARG13      -0.2919
    103 NH1        11.1680   -4.0160   32.5230 N.pl3  13  ARG13      -0.2919
    104 N          12.5350  -10.5820   28.4630 N.am   14  ARG14      -0.3025
    105 CA         13.6860  -10.9610   27.6520 C.3    14  ARG14       0.0995
    106 C          13.2450  -11.5810   26.3280 C.2    14  ARG14       0.2338
    107 O          14.0450  -11.7290   25.4050 O.2    14  ARG14      -0.2738
    108 CB         14.5860  -11.9300   28.4220 C.3    14  ARG14      -0.0231
    109 CG         15.5480  -11.2410   29.3750 C.3    14  ARG14      -0.0201
    110 CD         16.0600  -12.1890   30.4470 C.3    14  ARG14       0.0646
    111 NE         17.2050  -11.6280   31.1590 N.pl3  14  ARG14      -0.2787
    112 CZ         17.6300  -12.0480   32.3470 C.cat  14  ARG14       0.3410
    113 NH2        17.0000  -13.0350   32.9710 N.pl3  14  ARG14      -0.2919
    114 NH1        18.6840  -11.4770   32.9150 N.pl3  14  ARG14      -0.2919
    115 N          11.9680  -11.9390   26.2450 N.am   15  GLY15      -0.3033
    116 CA         11.4100  -12.5280   25.0340 C.3    15  GLY15       0.1089
    117 C          11.7290  -14.0040   24.8940 C.2    15  GLY15       0.3221
    118 O          11.6330  -14.5660   23.8030 O.2    15  GLY15      -0.2492
    119 OXT        12.1163  -14.6980   25.9604 O.3    15  GLY15      -0.4795
    120 H1         13.5142  -25.3760   38.0489 H       1  GLN1       -0.0890
    121 H2         12.4402  -24.4734   37.1880 H       1  GLN1       -0.0890
    122 H3         12.6702  -24.1727   38.7900 H       1  GLN1       -0.0890
    123 HA         14.9197  -23.4643   38.4292 H       1  GLN1        0.0178
    124 HB1        14.3917  -23.5602   35.4593 H       1  GLN1        0.0258
    125 HB2        14.9546  -25.0367   36.3135 H       1  GLN1        0.0258
    126 HG1        16.8063  -23.4188   37.2565 H       1  GLN1        0.0358
    127 HG2        16.3738  -22.4255   35.8237 H       1  GLN1        0.0358
    128 HE21       19.0849  -25.1629   35.2817 H       1  GLN1        0.1449
    129 HE22       18.7724  -24.2005   36.6875 H       1  GLN1        0.1449
    130 H          13.5440  -22.3376   35.4166 H       2  GLY2        0.1491
    131 HA1        12.9175  -20.1168   34.8956 H       2  GLY2        0.0558
    132 HA2        12.9182  -19.7262   36.6489 H       2  GLY2        0.0558
    133 H          11.2774  -21.5386   37.7431 H       3  ILE3        0.1495
    134 HA          8.8164  -21.6627   36.0996 H       3  ILE3        0.0597
    135 HB          9.9535  -23.3719   38.3026 H       3  ILE3        0.0321
    136 HG11       10.1285  -23.8364   35.8149 H       3  ILE3        0.0266
    137 HG12        8.3459  -24.0576   35.8038 H       3  ILE3        0.0266
    138 HG21        7.7383  -22.7024   39.1794 H       3  ILE3        0.0233
    139 HG22        7.7753  -24.4349   38.7065 H       3  ILE3        0.0233
    140 HG23        6.9748  -23.2301   37.6415 H       3  ILE3        0.0233
    141 HD11        9.5174  -26.2111   35.9231 H       3  ILE3        0.0230
    142 HD12        8.5653  -25.9068   37.4156 H       3  ILE3        0.0230
    143 HD13       10.3479  -25.6856   37.4267 H       3  ILE3        0.0230
    144 H          10.1155  -20.1948   38.9651 H       4  THR4        0.1496
    145 HA          7.6277  -19.5144   40.2138 H       4  THR4        0.0621
    146 HB          9.5498  -19.3097   41.5921 H       4  THR4        0.0614
    147 HG1         8.0547  -17.5346   41.7869 H       4  THR4        0.2099
    148 HG21       11.4834  -17.8650   41.0428 H       4  THR4        0.0255
    149 HG22       10.7251  -17.4484   39.4686 H       4  THR4        0.0255
    150 HG23       11.2410  -19.1372   39.7981 H       4  THR4        0.0255
    151 H           6.5982  -17.4098   40.2682 H       5  LYS5        0.1495
    152 HA          6.0879  -16.5453   37.6388 H       5  LYS5        0.0594
    153 HB1         4.5019  -15.0694   38.4872 H       5  LYS5        0.0288
    154 HB2         5.3438  -14.9288   40.0677 H       5  LYS5        0.0288
    155 HG1         4.0049  -16.4284   40.8351 H       5  LYS5        0.0265
    156 HG2         4.7788  -17.6163   39.7320 H       5  LYS5        0.0265
    157 HD1         2.7787  -17.7988   38.8407 H       5  LYS5        0.0247
    158 HD2         3.1566  -16.2260   38.0596 H       5  LYS5        0.0247
    159 HE1         2.2606  -15.9024   40.8024 H       5  LYS5        0.0049
    160 HE2         1.0602  -16.7818   39.7962 H       5  LYS5        0.0049
    161 HZ1         0.7923  -14.4191   39.6543 H       5  LYS5       -0.0901
    162 HZ2         1.2343  -15.0290   38.1907 H       5  LYS5       -0.0901
    163 HZ3         2.3343  -14.2232   39.1128 H       5  LYS5       -0.0901
    164 HA          8.4970  -12.4811   38.6634 H       6  PRO6        0.0597
    165 HB1        10.0168  -12.1850   40.4497 H       6  PRO6        0.0288
    166 HB2        10.6176  -13.8748   40.3481 H       6  PRO6        0.0288
    167 HG1         9.2343  -13.9894   42.2372 H       6  PRO6        0.0281
    168 HG2         8.0536  -12.8160   41.5622 H       6  PRO6        0.0281
    169 HD1         8.4559  -15.7423   40.8931 H       6  PRO6        0.0465
    170 HD2         6.9318  -14.8066   41.0608 H       6  PRO6        0.0465
    171 H          10.0049  -15.7302   38.4966 H       7  ALA7        0.1495
    172 HA         12.1422  -14.8450   36.7600 H       7  ALA7        0.0592
    173 HB1        12.5705  -17.2536   36.4149 H       7  ALA7        0.0252
    174 HB2        11.0467  -17.6409   37.2835 H       7  ALA7        0.0252
    175 HB3        12.3972  -16.8373   38.1536 H       7  ALA7        0.0252
    176 H           8.9337  -16.2719   36.2574 H       8  ILE8        0.1495
    177 HA          9.2311  -16.6387   33.4222 H       8  ILE8        0.0597
    178 HB          6.7836  -16.4195   35.2284 H       8  ILE8        0.0321
    179 HG11        8.2611  -18.4104   35.4460 H       8  ILE8        0.0266
    180 HG12        8.0207  -18.7520   33.6990 H       8  ILE8        0.0266
    181 HG21        6.2065  -15.5825   32.9724 H       8  ILE8        0.0233
    182 HG22        5.4275  -17.1635   33.3190 H       8  ILE8        0.0233
    183 HG23        6.8685  -17.0875   32.2491 H       8  ILE8        0.0233
    184 HD11        6.5944  -20.1784   35.0976 H       8  ILE8        0.0230
    185 HD12        5.6086  -19.0635   34.0917 H       8  ILE8        0.0230
    186 HD13        5.8490  -18.7219   35.8388 H       8  ILE8        0.0230
    187 H           8.0722  -14.0189   35.4620 H       9  ARG9        0.1495
    188 HA          7.1724  -12.3781   33.3698 H       9  ARG9        0.0594
    189 HB1         7.7609  -10.6236   35.3007 H       9  ARG9        0.0289
    190 HB2         7.7256  -12.1430   36.2582 H       9  ARG9        0.0289
    191 HG1         5.6435  -12.7109   35.3234 H       9  ARG9        0.0296
    192 HG2         5.6820  -11.2360   34.2988 H       9  ARG9        0.0296
    193 HD1         4.5163  -10.3370   35.9078 H       9  ARG9        0.0655
    194 HD2         6.0834  -10.2390   36.7802 H       9  ARG9        0.0655
    195 HE          5.5321  -12.5641   37.6380 H       9  ARG9        0.2578
    196 HH11        1.8136  -11.0381   37.8195 H       9  ARG9        0.2545
    197 HH12        3.0113  -10.2719   36.7419 H       9  ARG9        0.2545
    198 HH21        4.0435  -13.4930   38.9632 H       9  ARG9        0.2545
    199 HH22        2.3972  -12.8164   39.0847 H       9  ARG9        0.2545
    200 H          10.2749  -12.9712   34.7131 H      10  ARG10       0.1495
    201 HA         11.5981  -10.7214   33.4390 H      10  ARG10       0.0594
    202 HB1        12.7226  -13.2682   34.6171 H      10  ARG10       0.0289
    203 HB2        12.1608  -11.8795   35.6084 H      10  ARG10       0.0289
    204 HG1        13.9343  -10.5920   35.0330 H      10  ARG10       0.0296
    205 HG2        14.2998  -11.5592   33.5642 H      10  ARG10       0.0296
    206 HD1        15.2974  -13.2450   34.7410 H      10  ARG10       0.0655
    207 HD2        14.1710  -13.0774   36.1301 H      10  ARG10       0.0655
    208 HE         16.7489  -11.6635   35.7310 H      10  ARG10       0.2578
    209 HH11       15.0803  -10.5002   39.0241 H      10  ARG10       0.2545
    210 HH12       14.6444  -10.0323   37.3586 H      10  ARG10       0.2545
    211 HH21       16.9707  -13.3261   38.0276 H      10  ARG10       0.2545
    212 HH22       16.3849  -12.3432   39.3964 H      10  ARG10       0.2545
    213 H          11.0743  -14.1667   32.8093 H      11  LEU11       0.1495
    214 HA         12.7166  -14.3595   30.4765 H      11  LEU11       0.0594
    215 HB1        10.1497  -15.8302   30.4524 H      11  LEU11       0.0290
    216 HB2        11.1230  -16.0548   31.9454 H      11  LEU11       0.0290
    217 HG         12.7095  -17.2912   30.9046 H      11  LEU11       0.0296
    218 HD21       11.6262  -18.8628   29.3221 H      11  LEU11       0.0232
    219 HD22       10.2621  -17.7101   29.1295 H      11  LEU11       0.0232
    220 HD23       10.5745  -18.4734   30.7253 H      11  LEU11       0.0232
    221 HD11       13.3745  -15.5892   29.2461 H      11  LEU11       0.0232
    222 HD12       11.9928  -16.0737   28.2055 H      11  LEU11       0.0232
    223 HD13       13.3167  -17.2404   28.5413 H      11  LEU11       0.0232
    224 H           9.3376  -13.3726   31.0369 H      12  ALA12       0.1495
    225 HA          8.5338  -13.1348   28.3393 H      12  ALA12       0.0592
    226 HB1         6.7729  -11.6214   29.1951 H      12  ALA12       0.0252
    227 HB2         7.6293  -11.5329   30.7716 H      12  ALA12       0.0252
    228 HB3         6.9519  -13.0967   30.2039 H      12  ALA12       0.0252
    229 H          10.1300  -10.7733   30.4771 H      13  ARG13       0.1495
    230 HA          9.9506   -8.6190   28.5576 H      13  ARG13       0.0594
    231 HB1        11.3605   -7.3754   30.0794 H      13  ARG13       0.0289
    232 HB2        11.8346   -8.8799   30.9386 H      13  ARG13       0.0289
    233 HG1         9.4089   -9.1825   31.5564 H      13  ARG13       0.0296
    234 HG2         9.1000   -7.5488   30.8764 H      13  ARG13       0.0296
    235 HD1        11.2994   -7.8870   32.9039 H      13  ARG13       0.0655
    236 HD2         9.5924   -7.9120   33.4627 H      13  ARG13       0.0655
    237 HE          9.3090   -5.6561   32.5981 H      13  ARG13       0.2578
    238 HH21       13.3498   -5.2568   32.5814 H      13  ARG13       0.2545
    239 HH22       12.6308   -6.8877   32.6571 H      13  ARG13       0.2545
    240 HH11       10.2269   -3.5980   32.5003 H      13  ARG13       0.2545
    241 HH12       12.0010   -3.4106   32.5021 H      13  ARG13       0.2545
    242 H          12.2000  -11.2178   29.1584 H      14  ARG14       0.1495
    243 HA         14.2649  -10.0523   27.4304 H      14  ARG14       0.0594
    244 HB1        15.1730  -12.5111   27.6955 H      14  ARG14       0.0289
    245 HB2        13.9468  -12.6097   29.0046 H      14  ARG14       0.0289
    246 HG1        15.0277  -10.4024   29.8609 H      14  ARG14       0.0296
    247 HG2        16.4043  -10.8579   28.8006 H      14  ARG14       0.0296
    248 HD1        16.3629  -13.1341   29.9726 H      14  ARG14       0.0655
    249 HD2        15.2518  -12.3829   31.1676 H      14  ARG14       0.0655
    250 HE         17.7178  -10.8552   30.7110 H      14  ARG14       0.2578
    251 HH21       17.3321  -13.3576   33.8911 H      14  ARG14       0.2545
    252 HH22       16.1788  -13.4786   32.5353 H      14  ARG14       0.2545
    253 HH11       19.1760  -10.7105   32.4341 H      14  ARG14       0.2545
    254 HH12       19.0104  -11.8001   33.8369 H      14  ARG14       0.2545
    255 H          11.3725  -11.8003   27.0363 H      15  GLY15       0.1493
    256 HA1        11.8212  -11.9961   24.1634 H      15  GLY15       0.0577
    257 HA2        10.3170  -12.4058   25.0558 H      15  GLY15       0.0577
    258 HXT        12.1399  -14.1254   26.7180 H      15  GLY15       0.2951
@<TRIPOS>BOND
     1   118   117    2
     2   256   116    1
     3   117   116    1
     4   117   119    1
     5   116   257    1
     6   116   115    1
     7   107   106    2
     8   119   258    1
     9   115   106   am
    10   115   255    1
    11   106   105    1
    12   243   105    1
    13    91    90    2
    14    96    95    2
    15   105   108    1
    16   105   104    1
    17   244   108    1
    18   222    87    1
    19    95   104   am
    20    95    94    1
    21   225    89    1
    22   108   245    1
    23   108   109    1
    24   104   242    1
    25   223    87    1
    26   230    94    1
    27    83    82    2
    28    90    89    1
    29    90    93   am
    30   247   109    1
    31    87   221    1
    32    87    85    1
    33   219    86    1
    34    94    93    1
    35    94    97    1
    36    89    92    1
    37    89    88    1
    38   226    92    1
    39   218    86    1
    40   109   246    1
    41   109   110    1
    42    93   229    1
    43    82    88   am
    44    82    81    1
    45    86    85    1
    46    86   220    1
    47    92   228    1
    48    92   227    1
    49   248   110    1
    50   231    97    1
    51    88   224    1
    52    85    84    1
    53    85   217    1
    54    97   232    1
    55    97    98    1
    56   110   111    1
    57   110   249    1
    58   215    84    1
    59   214    81    1
    60   250   111    1
    61    81    84    1
    62    81    80    1
    63    84   216    1
    64   234    98    1
    65   111   112    1
    66    98   233    1
    67    98    99    1
    68    72    71    2
    69    80    71   am
    70    80   213    1
    71   183    56    1
    72    71    70    1
    73   112   114    2
    74   112   113    1
    75    53    52    2
    76   253   114    1
    77   240   103    1
    78   241   103    1
    79   103   101    2
    80   252   113    1
    81   101   102    1
    82   101   100    1
    83   238   102    1
    84   237   100    1
    85   102   239    1
    86   100    99    1
    87    99   235    1
    88    99   236    1
    89    61    60    2
    90   114   254    1
    91   113   251    1
    92   181    56    1
    93    56   182    1
    94    56    54    1
    95   188    59    1
    96   177    51    1
    97   201    70    1
    98   205    74    1
    99    70    69    1
   100    70    73    1
   101    60    69   am
   102    60    59    1
   103    52    51    1
   104    52    58   am
   105   180    55    1
   106    69   200    1
   107   185    57    1
   108    51    54    1
   109    51    50    1
   110    59    58    1
   111    59    62    1
   112   192    63    1
   113     8     7    2
   114    54    55    1
   115    54   178    1
   116    48    47    2
   117    58   187    1
   118    74    73    1
   119    74   204    1
   120    74    75    1
   121    55    57    1
   122    55   179    1
   123   202    73    1
   124    73   203    1
   125   206    75    1
   126   131    11    1
   127    57   184    1
   128    57   186    1
   129    13    12    2
   130    63   191    1
   131    63    62    1
   132    63    64    1
   133   128     9    1
   134   189    62    1
   135    62   190    1
   136     7     9   am
   137     7     6    1
   138    50    47   am
   139    50   176    1
   140   130    10    1
   141    47    46    1
   142    75   207    1
   143    75    76    1
   144   124     5    1
   145   208    76    1
   146   137    19    1
   147   136    19    1
   148     9   129    1
   149   127     6    1
   150    11    12    1
   151    11    10    1
   152    11   132    1
   153   193    64    1
   154   141    21    1
   155    12    14   am
   156   134    15    1
   157    10     3   am
   158    76    77    1
   159     6     5    1
   160     6   126    1
   161   125     5    1
   162    64   194    1
   163    64    65    1
   164     5     2    1
   165   173    49    1
   166    19    21    1
   167    19    18    1
   168   197    67    1
   169   172    46    1
   170    46    49    1
   171    46    45    1
   172    21   142    1
   173    21   143    1
   174    14    15    1
   175    14   133    1
   176    41    40    2
   177    15    18    1
   178    15    16    1
   179   121     1    1
   180    49   174    1
   181    49   175    1
   182    32    31    2
   183    65   195    1
   184    65    66    1
   185   210    78    1
   186     3     2    1
   187     3     4    2
   188    67    66    2
   189    67   196    1
   190    77    78    2
   191    77    79    1
   192     2     1    1
   193     2   123    1
   194    18   135    1
   195    18    20    1
   196   152    30    1
   197   140    20    1
   198    66    68    1
   199    25    24    2
   200    45    40   am
   201    45   171    1
   202    17    16    2
   203    40    39    1
   204     1   120    1
   205     1   122    1
   206    16    22   am
   207    78   209    1
   208   211    79    1
   209   158    35    1
   210   162    37    1
   211    31    30    1
   212    31    38   am
   213    20   139    1
   214    20   138    1
   215    79   212    1
   216   153    33    1
   217    30    33    1
   218    30    29    1
   219   164    39    1
   220    68   198    1
   221    68   199    1
   222   157    35    1
   223    22   144    1
   224    22    23    1
   225    24    29   am
   226    24    23    1
   227    39    38    1
   228    39    42    1
   229    35    36    1
   230    35    34    1
   231   163    37    1
   232    37   161    1
   233    37    36    1
   234    33    34    1
   235    33   154    1
   236    38    44    1
   237    29   151    1
   238   149    28    1
   239    23   145    1
   240    23    26    1
   241   156    34    1
   242    36   160    1
   243    36   159    1
   244    34   155    1
   245   150    28    1
   246    28    26    1
   247    28   148    1
   248    42   166    1
   249    42   165    1
   250    42    43    1
   251    44   169    1
   252    44   170    1
   253    44    43    1
   254    26    27    1
   255    26   146    1
   256    43   168    1
   257    43   167    1
   258    27   147    1
