# created with PyMOL 2.4.1
@<TRIPOS>MOLECULE
1ai2_ICA_A_1
14 12 1                 
SMALL
USER_CHARGES
@<TRIPOS>ATOM
1	  CA	-83.806	-68.548	1.619	Ca	1	ICA418	0.000	
2	  C1	-83.861	-65.748	3.273	C.2	1	ICA418	0.000	
3	  O1	-84.223	-64.860	4.076	O.co2	1	ICA418	0.000	
4	  C2	-83.487	-65.310	1.890	C.3	1	ICA418	0.000	
5	  O2	-83.745	-66.944	3.551	O.co2	1	ICA418	0.000	
6	  C3	-82.748	-64.058	1.981	C.3	1	ICA418	0.000	
7	  O3	-84.271	-61.358	0.375	O.co2	1	ICA418	0.000	
8	  C4	-83.083	-63.317	0.727	C.3	1	ICA418	0.000	
9	  O4	-82.360	-61.318	1.321	O.co2	1	ICA418	0.000	
10	  C5	-83.221	-61.928	0.717	C.2	1	ICA418	0.000	
11	  O5	-80.757	-64.516	3.274	O.co2	1	ICA418	0.000	
12	  C6	-81.205	-64.322	2.132	C.2	1	ICA418	0.000	
13	  O6	-80.503	-64.234	1.079	O.co2	1	ICA418	0.000	
14	  O7	-82.703	-66.348	1.272	O.3	1	ICA418	0.000	
@<TRIPOS>BOND
1 2 3 ar
2 2 4 1
3 2 5 ar
4 4 6 1
5 4 14 1
6 6 8 1
7 6 12 1
8 8 10 1
9 7 10 ar
10 9 10 ar
11 11 12 ar
12 12 13 ar
@<TRIPOS>SUBSTRUCTURE
1	ICA418	1	GROUP	1 A	ICA
