# created with PyMOL 2.4.1
@<TRIPOS>MOLECULE
3cho_4BG_A_1
19 20 1                 
SMALL
USER_CHARGES
@<TRIPOS>ATOM
1	  C1	24.439	-0.159	3.585	C.2	1	4BG901	0.000	
2	  C2	23.520	0.449	4.452	C.2	1	4BG901	0.000	
3	  C3	22.892	1.650	4.084	C.2	1	4BG901	0.000	
4	  C4	23.174	2.236	2.843	C.2	1	4BG901	0.000	
5	  C5	24.094	1.628	1.977	C.2	1	4BG901	0.000	
6	  C6	24.739	0.432	2.351	C.2	1	4BG901	0.000	
7	  C7	25.948	-0.026	1.552	C.3	1	4BG901	0.000	
8	  O8	26.142	0.528	0.322	O.3	1	4BG901	0.000	
9	  C9	27.440	0.441	-0.094	C.2	1	4BG901	0.000	
10	 C10	27.713	0.522	-1.469	C.2	1	4BG901	0.000	
11	 C11	29.008	0.869	-1.899	C.2	1	4BG901	0.000	
12	 C12	28.467	0.653	0.841	C.2	1	4BG901	0.000	
13	 C13	29.745	0.996	0.414	C.2	1	4BG901	0.000	
14	 C14	30.026	1.131	-0.957	C.2	1	4BG901	0.000	
15	 N15	31.175	1.699	-1.393	N.pl3	1	4BG901	0.000	
16	 C16	32.129	2.204	-0.582	C.2	1	4BG901	0.000	
17	 O17	31.939	2.591	0.575	O.2	1	4BG901	0.000	
18	 C18	33.507	2.345	-1.230	C.3	1	4BG901	0.000	
19	 N19	34.336	3.253	-0.422	N.3	1	4BG901	0.000	
@<TRIPOS>BOND
1 1 2 ar
2 1 6 ar
3 2 3 ar
4 3 4 ar
5 4 5 ar
6 5 6 ar
7 6 7 1
8 7 8 1
9 8 9 1
10 9 10 ar
11 9 12 ar
12 10 11 ar
13 11 14 ar
14 12 13 ar
15 13 14 ar
16 14 15 1
17 15 16 1
18 16 17 2
19 16 18 1
20 18 19 1
@<TRIPOS>SUBSTRUCTURE
1	4BG901	1	GROUP	1 A	4BG
