# created with PyMOL 2.4.1
@<TRIPOS>MOLECULE
1ai3_ICT_A_1
13 12 1                 
SMALL
USER_CHARGES
@<TRIPOS>ATOM
1	  C1	-83.778	-65.330	3.589	C.2	1	ICT418	0.000	
2	  O1	-84.285	-64.366	4.203	O.co2	1	ICT418	0.000	
3	  C2	-83.469	-65.130	2.136	C.3	1	ICT418	0.000	
4	  O2	-83.475	-66.408	4.100	O.co2	1	ICT418	0.000	
5	  C3	-82.737	-63.880	1.984	C.3	1	ICT418	0.000	
6	  O3	-84.199	-61.443	0.108	O.co2	1	ICT418	0.000	
7	  C4	-83.007	-63.441	0.580	C.3	1	ICT418	0.000	
8	  O4	-82.299	-61.237	1.052	O.co2	1	ICT418	0.000	
9	  C5	-83.161	-61.945	0.568	C.2	1	ICT418	0.000	
10	  O5	-80.813	-64.016	3.443	O.co2	1	ICT418	0.000	
11	  C6	-81.203	-64.086	2.265	C.2	1	ICT418	0.000	
12	  O6	-80.449	-64.226	1.255	O.co2	1	ICT418	0.000	
13	  O7	-82.752	-66.241	1.566	O.3	1	ICT418	0.000	
@<TRIPOS>BOND
1 1 2 ar
2 1 3 1
3 1 4 ar
4 3 5 1
5 3 13 1
6 5 7 1
7 5 11 1
8 7 9 1
9 6 9 ar
10 8 9 ar
11 10 11 ar
12 11 12 ar
@<TRIPOS>SUBSTRUCTURE
1	ICT418	1	GROUP	1 A	ICT
