@<TRIPOS>MOLECULE
4na4_ligand
 58 61 0 0 0
SMALL
GASTEIGER

@<TRIPOS>ATOM
      1 N          53.9550   31.8320   24.0770 N.2     1  UNL1       -0.2420
      2 C          52.7190   32.1630   23.6700 C.2     1  UNL1        0.1049
      3 N          52.3280   33.4450   23.6450 N.pl3   1  UNL1       -0.1840
      4 C          53.1710   34.4320   24.0430 C.ar    1  UNL1        0.1528
      5 C          54.4380   34.1150   24.4740 C.ar    1  UNL1        0.1287
      6 C          54.8250   32.7800   24.4880 C.3     1  UNL1        0.2004
      7 N          56.0570   32.4050   24.9020 N.3     1  UNL1       -0.2985
      8 N          55.0420   35.2690   24.7960 N.ar    1  UNL1       -0.2346
      9 C          54.1590   36.2710   24.5620 C.ar    1  UNL1        0.0999
     10 N          53.0200   35.7550   24.1120 N.ar    1  UNL1       -0.2877
     11 C          51.7720   36.4790   23.7250 C.3     1  UNL1        0.1665
     12 C          51.4610   37.6800   24.6030 C.3     1  UNL1        0.1285
     13 O          50.0560   37.6470   24.8570 O.3     1  UNL1       -0.3847
     14 C          51.8080   38.8970   23.7700 C.3     1  UNL1        0.1135
     15 O          50.9870   40.0310   24.0530 O.3     1  UNL1       -0.3864
     16 O          51.8600   36.9970   22.3870 O.3     1  UNL1       -0.3456
     17 C          51.5360   38.3910   22.3640 C.3     1  UNL1        0.1133
     18 C          52.3060   39.1110   21.2750 C.3     1  UNL1        0.0836
     19 O          53.6580   39.3030   21.6610 O.3     1  UNL1       -0.3246
     20 P          54.5080   40.4680   20.9680 P.3     1  UNL1        0.2182
     21 O          55.9180   40.0630   21.2710 O.2     1  UNL1       -0.5170
     22 O          53.9680   41.8250   21.3420 O.3     1  UNL1       -0.4371
     23 O          54.1490   40.1900   19.4150 O.3     1  UNL1       -0.2703
     24 P          53.8400   41.3110   18.3000 P.3     1  UNL1        0.2181
     25 O          52.6540   42.1740   18.6690 O.3     1  UNL1       -0.4371
     26 O          53.8470   40.5950   16.9860 O.2     1  UNL1       -0.5170
     27 O          55.1210   42.2660   18.3690 O.3     1  UNL1       -0.3288
     28 C          56.0360   42.3070   17.2840 C.3     1  UNL1        0.0449
     29 N          57.6710   42.7300   19.0390 N.4     1  UNL1        0.3858
     30 C          58.9950   42.1730   19.1120 C.3     1  UNL1       -0.0637
     31 O          60.7530   42.3470   17.4230 O.3     1  UNL1       -0.3912
     32 C          59.3840   42.0060   17.6470 C.3     1  UNL1        0.0646
     33 O          59.0690   44.1190   16.4770 O.3     1  UNL1       -0.3909
     34 C          58.4460   42.8810   16.8320 C.3     1  UNL1        0.0691
     35 C          57.2390   43.1230   17.7170 C.3     1  UNL1       -0.0274
     36 H          52.0305   31.3858   23.3585 H       1  UNL1        0.1015
     37 H          56.7323   33.1154   25.2185 H       1  UNL1        0.1209
     38 H          56.3198   31.4091   24.9007 H       1  UNL1        0.1209
     39 H          54.3526   37.3312   24.7182 H       1  UNL1        0.1030
     40 H          50.9370   35.7657   23.7872 H       1  UNL1        0.0866
     41 H          52.0336   37.6626   25.5421 H       1  UNL1        0.0665
     42 H          49.8171   38.3847   25.4057 H       1  UNL1        0.2101
     43 H          52.8644   39.1737   23.9022 H       1  UNL1        0.0647
     44 H          50.0787   39.8145   23.8782 H       1  UNL1        0.2100
     45 H          50.4642   38.5124   22.1483 H       1  UNL1        0.0647
     46 H          51.8405   40.0904   21.0905 H       1  UNL1        0.0591
     47 H          52.2751   38.5109   20.3536 H       1  UNL1        0.0591
     48 H          55.5598   42.7780   16.4115 H       1  UNL1        0.0548
     49 H          56.3517   41.2861   17.0229 H       1  UNL1        0.0548
     50 H          57.6429   43.5453   19.6311 H       1  UNL1       -0.0852
     51 H          57.0232   42.0401   19.3861 H       1  UNL1       -0.0852
     52 H          58.9869   41.2031   19.6309 H       1  UNL1        0.0080
     53 H          59.6836   42.8588   19.6272 H       1  UNL1        0.0080
     54 H          60.8971   43.2529   17.6703 H       1  UNL1        0.2098
     55 H          59.2399   40.9555   17.3544 H       1  UNL1        0.0599
     56 H          59.8464   43.9441   15.9598 H       1  UNL1        0.2098
     57 H          58.1433   42.3557   15.9142 H       1  UNL1        0.0602
     58 H          56.9693   44.1893   17.7032 H       1  UNL1        0.0137
@<TRIPOS>BOND
     1    57    34    1
     2    56    33    1
     3    48    28    1
     4    33    34    1
     5    34    32    1
     6    34    35    1
     7    26    24    2
     8    49    28    1
     9    28    35    1
    10    28    27    1
    11    55    32    1
    12    31    32    1
    13    31    54    1
    14    32    30    1
    15    58    35    1
    16    35    29    1
    17    24    27    1
    18    24    25    1
    19    24    23    1
    20    29    30    1
    21    29    51    1
    22    29    50    1
    23    30    53    1
    24    30    52    1
    25    23    20    1
    26    47    18    1
    27    20    21    2
    28    20    22    1
    29    20    19    1
    30    46    18    1
    31    18    19    1
    32    18    17    1
    33    45    17    1
    34    17    16    1
    35    17    14    1
    36    16    11    1
    37    36     2    1
    38     3     2    1
    39     3     4    1
    40     2     1    2
    41    11    40    1
    42    11    10    1
    43    11    12    1
    44    14    43    1
    45    14    15    1
    46    14    12    1
    47    44    15    1
    48     4    10   ar
    49     4     5   ar
    50     1     6    1
    51    10     9   ar
    52     5     6    1
    53     5     8   ar
    54     6     7    1
    55     9    39    1
    56     9     8   ar
    57    12    13    1
    58    12    41    1
    59    13    42    1
    60    38     7    1
    61     7    37    1
