# created with PyMOL 2.4.1
@<TRIPOS>MOLECULE
1a7t_MES_B_1
12 12 1                 
SMALL
USER_CHARGES
@<TRIPOS>ATOM
1	  O1	3.997	43.920	71.373	O.3	1	MES250	0.000	
2	 O1S	7.058	45.990	65.803	O.3	1	MES250	0.000	
3	  C2	5.303	44.552	71.344	C.3	1	MES250	0.000	
4	 O2S	5.394	47.629	65.396	O.2	1	MES250	0.000	
5	  C3	5.173	45.789	70.411	C.3	1	MES250	0.000	
6	 O3S	7.474	48.243	66.123	O.2	1	MES250	0.000	
7	  N4	4.935	45.211	69.065	N.3	1	MES250	0.000	
8	  C5	3.746	44.346	68.997	C.3	1	MES250	0.000	
9	  C6	3.760	43.308	70.100	C.3	1	MES250	0.000	
10	  C7	4.723	46.277	68.093	C.3	1	MES250	0.000	
11	  C8	5.961	47.119	67.953	C.3	1	MES250	0.000	
12	   S	6.452	47.235	66.231	S.3	1	MES250	0.000	
@<TRIPOS>BOND
1 1 3 1
2 1 9 1
3 3 5 1
4 5 7 1
5 7 8 1
6 7 10 1
7 8 9 1
8 10 11 1
9 11 12 1
10 2 12 1
11 4 12 2
12 6 12 2
@<TRIPOS>SUBSTRUCTURE
1	MES250	1	GROUP	1 B	MES
