# created with PyMOL 2.4.1
@<TRIPOS>MOLECULE
1ah3_TOL_A_1
24 25 1                 
SMALL
USER_CHARGES
@<TRIPOS>ATOM
1	  C1	71.131	40.243	88.340	C.3	1	TOL320	0.000	
2	  N1	65.207	36.743	89.854	N.pl3	1	TOL320	0.000	
3	  O1	69.500	42.254	89.724	O.3	1	TOL320	0.000	
4	  S1	64.375	37.410	87.419	S.3	1	TOL320	0.000	
5	  C2	69.641	40.111	88.723	C.2	1	TOL320	0.000	
6	  O2	61.859	37.881	90.537	O.co2	1	TOL320	0.000	
7	  C3	68.905	41.122	89.394	C.2	1	TOL320	0.000	
8	  O3	63.822	38.931	90.487	O.co2	1	TOL320	0.000	
9	  C4	68.633	43.163	90.382	C.3	1	TOL320	0.000	
10	  C5	67.545	40.899	89.702	C.2	1	TOL320	0.000	
11	  C6	66.919	39.697	89.353	C.2	1	TOL320	0.000	
12	  C7	67.647	38.690	88.689	C.2	1	TOL320	0.000	
13	  C8	67.003	37.479	88.343	C.2	1	TOL320	0.000	
14	  C9	67.729	36.476	87.680	C.2	1	TOL320	0.000	
15	 C10	69.076	36.669	87.365	C.2	1	TOL320	0.000	
16	 C11	69.709	37.870	87.709	C.2	1	TOL320	0.000	
17	 C12	69.004	38.891	88.373	C.2	1	TOL320	0.000	
18	 C13	65.552	37.186	88.644	C.2	1	TOL320	0.000	
19	 C14	66.240	36.459	90.844	C.3	1	TOL320	0.000	
20	 C15	63.812	36.513	90.216	C.3	1	TOL320	0.000	
21	 C16	63.056	37.836	90.427	C.2	1	TOL320	0.000	
22	  F1	71.876	39.247	88.882	 F	1	TOL320	0.000	
23	  F2	71.667	41.416	88.770	 F	1	TOL320	0.000	
24	  F3	71.287	40.199	86.990	 F	1	TOL320	0.000	
@<TRIPOS>BOND
1 1 5 1
2 1 22 1
3 1 23 1
4 1 24 1
5 2 19 1
6 2 20 1
7 3 9 1
8 5 7 ar
9 5 17 ar
10 3 7 1
11 7 10 ar
12 10 11 ar
13 11 12 ar
14 12 13 ar
15 12 17 ar
16 13 14 ar
17 13 18 1
18 14 15 ar
19 15 16 ar
20 16 17 ar
21 2 18 2
22 4 18 1
23 20 21 1
24 6 21 ar
25 8 21 ar
@<TRIPOS>SUBSTRUCTURE
1	TOL320	1	GROUP	1 A	TOL
