@<TRIPOS>MOLECULE
4lov_ligand
 43 43 0 0 0
SMALL
GASTEIGER

@<TRIPOS>ATOM
      1 O           8.6150   -6.9900  -33.6660 O.3     1  UNL1       -0.3924
      2 C           8.7840   -7.5860  -34.9610 C.3     1  UNL1        0.0730
      3 C          10.2670   -7.4120  -35.4070 C.3     1  UNL1        0.1130
      4 C          10.7760   -6.8110  -41.8900 C.2     1  UNL1       -0.0879
      5 O          10.4490   -5.9890  -35.5410 O.3     1  UNL1       -0.3405
      6 C          11.2840   -8.0580  -34.4050 C.3     1  UNL1        0.1119
      7 O          11.1130   -9.4450  -34.4480 O.3     1  UNL1       -0.3865
      8 C          12.6970   -7.6680  -34.8770 C.3     1  UNL1        0.1141
      9 O          13.6700   -8.1030  -33.9580 O.3     1  UNL1       -0.3864
     10 C          12.8690   -6.0950  -34.9830 C.3     1  UNL1        0.1341
     11 O          12.7070   -5.4770  -33.7200 O.3     1  UNL1       -0.3841
     12 C          11.7790   -5.5210  -35.9430 C.3     1  UNL1        0.1879
     13 O          11.9270   -5.9530  -37.2750 O.3     1  UNL1       -0.3484
     14 C          11.0660   -5.4480  -38.3320 C.3     1  UNL1        0.0542
     15 C          11.3970   -6.3840  -39.5210 C.3     1  UNL1       -0.0111
     16 C          10.5440   -6.1630  -40.7280 C.2     1  UNL1       -0.0858
     17 C           9.1460   -7.0160  -45.4010 C.3     1  UNL1       -0.0650
     18 C          10.1420   -7.3880  -44.2780 C.3     1  UNL1       -0.0525
     19 C           9.9210   -6.4950  -43.0940 C.3     1  UNL1       -0.0350
     20 H           7.7127   -7.0921  -33.3870 H       1  UNL1        0.2095
     21 H           8.1202   -7.0907  -35.6849 H       1  UNL1        0.0584
     22 H           8.5370   -8.6567  -34.9098 H       1  UNL1        0.0584
     23 H          10.4104   -7.8913  -36.3866 H       1  UNL1        0.0647
     24 H          11.5704   -7.5528  -41.9579 H       1  UNL1        0.0569
     25 H          11.1106   -7.6894  -33.3832 H       1  UNL1        0.0647
     26 H          10.2227   -9.6611  -34.1969 H       1  UNL1        0.2100
     27 H          12.8798   -8.1272  -35.8597 H       1  UNL1        0.0648
     28 H          14.5320   -7.8522  -34.2687 H       1  UNL1        0.2100
     29 H          13.8704   -5.8666  -35.3766 H       1  UNL1        0.0671
     30 H          13.3597   -5.8142  -33.1177 H       1  UNL1        0.2101
     31 H          11.8228   -4.4226  -35.9046 H       1  UNL1        0.0937
     32 H          11.3060   -4.4018  -38.5727 H       1  UNL1        0.0564
     33 H          10.0056   -5.5254  -38.0502 H       1  UNL1        0.0564
     34 H          11.2631   -7.4242  -39.1893 H       1  UNL1        0.0330
     35 H          12.4471   -6.2222  -39.8060 H       1  UNL1        0.0330
     36 H           9.7135   -5.4610  -40.6690 H       1  UNL1        0.0570
     37 H           9.3098   -7.6722  -46.2685 H       1  UNL1        0.0230
     38 H           9.3033   -5.9688  -45.6986 H       1  UNL1        0.0230
     39 H           8.1165   -7.1425  -45.0348 H       1  UNL1        0.0230
     40 H          11.1713   -7.2616  -44.6448 H       1  UNL1        0.0266
     41 H           9.9845   -8.4354  -43.9810 H       1  UNL1        0.0266
     42 H          10.1337   -5.4606  -43.4020 H       1  UNL1        0.0307
     43 H           8.8657   -6.5790  -42.7951 H       1  UNL1        0.0307
@<TRIPOS>BOND
     1    37    17    1
     2    38    17    1
     3    17    39    1
     4    17    18    1
     5    40    18    1
     6    18    41    1
     7    18    19    1
     8    42    19    1
     9    19    43    1
    10    19     4    1
    11    24     4    1
    12     4    16    2
    13    16    36    1
    14    16    15    1
    15    35    15    1
    16    15    34    1
    17    15    14    1
    18    32    14    1
    19    14    33    1
    20    14    13    1
    21    13    12    1
    22    23     3    1
    23    12    31    1
    24    12     5    1
    25    12    10    1
    26    27     8    1
    27    21     2    1
    28     5     3    1
    29     3     2    1
    30     3     6    1
    31    29    10    1
    32    10     8    1
    33    10    11    1
    34     2    22    1
    35     2     1    1
    36     8     6    1
    37     8     9    1
    38     7     6    1
    39     7    26    1
    40     6    25    1
    41    28     9    1
    42    11    30    1
    43     1    20    1
